Circuit: * D:\Zesta\Analogowe uklady peryferyjne\repo\symulacje\tor_we_adc.asc

WARNING: Less than two connections to node OUT_DIFF_FILTER.  This node is used by E1.
WARNING: Less than two connections to node OUT_DIFF.  This node is used by E2.
Early termination of direct N-R iteration.
Direct Newton iteration failed to find .op point.  (Use ".option noopiter" to skip.)
Starting Gmin stepping
Gmin = 10
Gmin = 1.07374
Gmin = 0.115292
Gmin = 0.0123794
Gmin = 0.00132923
Gmin = 0.000142725
Gmin = 1.5325e-005
Gmin = 1.6455e-006
vernier = 0.5
vernier = 0.25
vernier = 0.125
Gmin = 4.31359e-007
vernier = 0.166667
Gmin = 3.01561e-007
vernier = 0.222222
vernier = 0.296296
Gmin = 1.68911e-007
vernier = 0.395061
vernier = 0.526748
Gmin = 6.8454e-008
vernier = 0.702331
Gmin = 1.64248e-008
vernier = 0.936441
vernier = 0.46822
vernier = 0.23411
vernier = 0.117055
vernier = 0.0585276
vernier = 0.0292638
vernier = 0.0146319
Gmin = 9.1736e-009
vernier = 0.00731595
vernier = 0.00365797
vernier = 0.00182899
vernier = 0.000914493
vernier = 0.000457247
Gmin = 0
Gmin stepping failed

Starting source stepping with srcstepmethod=0
Source Step = 3.0303%
Source Step = 33.3333%
Source Step = 58.3333%
vernier = 0.0625
Source Step = 57.5965%
Source Step = 57.6261%
Source Step = 57.6557%
Source Step = 57.6853%
Source Step = 57.7148%
vernier = 0.00146484
Source Step = 57.7518%
Source Step = 57.7962%
Source Step = 57.8406%
Source Step = 57.885%
Source Step = 57.9294%
vernier = 0.00219727
Source Step = 57.9827%
Source Step = 58.0492%
Source Step = 58.1158%
Source Step = 58.1824%
Source Step = 58.249%
vernier = 0.0032959
Source Step = 58.3256%
Source Step = 58.4254%
Source Step = 58.5253%
Source Step = 58.6252%
Source Step = 58.7251%
vernier = 0.00494385
Source Step = 58.8349%
Source Step = 58.9847%
Source Step = 59.1346%
Source Step = 59.2844%
Source Step = 59.4342%
vernier = 0.00741577
Source Step = 59.5915%
Source Step = 59.8162%
Source Step = 60.0409%
Source Step = 60.2657%
Source Step = 60.4904%
Source Step = 60.7151%
vernier = 0.0111237
Source Step = 61.0522%
Source Step = 61.3893%
Source Step = 61.7263%
Source Step = 62.0634%
Source Step = 62.4005%
vernier = 0.0166855
Source Step = 62.8893%
Source Step = 63.3949%
Source Step = 63.9005%
Source Step = 64.4061%
Source Step = 64.9117%
vernier = 0.0250282
Source Step = 65.6196%
Source Step = 66.378%
Source Step = 67.1365%
Source Step = 67.8949%
Source Step = 68.6533%
vernier = 0.0375423
Source Step = 69.6772%
Source Step = 70.8149%
Source Step = 71.9525%
Source Step = 73.0902%
Source Step = 74.2278%
vernier = 0.0563135
Source Step = 75.7067%
Source Step = 77.4132%
Source Step = 79.1197%
Source Step = 80.8262%
Source Step = 82.5326%
vernier = 0.0844703
Source Step = 84.6657%
Source Step = 87.2254%
Source Step = 89.7851%
Source Step = 90.569%
Source Step = 90.609%
Source Step = 90.649%
Source Step = 90.689%
Source Step = 90.729%
Source Step = 90.769%
Source Step = 90.809%
Source Step = 90.849%
Source Step = 90.889%
Source Step = 90.929%
Source Step = 90.969%
Source Step = 91.009%
vernier = 0.00197977
Source Step = 91.059%
Source Step = 91.119%
Source Step = 91.179%
Source Step = 91.239%
Source Step = 91.299%
vernier = 0.00296966
Source Step = 91.3619%
Source Step = 91.4519%
Source Step = 91.5419%
Source Step = 91.6319%
Source Step = 91.7219%
Source Step = 91.8119%
vernier = 0.00445449
Source Step = 91.9469%
Source Step = 92.0819%
Source Step = 92.2168%
Source Step = 92.3518%
Source Step = 92.4868%
vernier = 0.00668173
Source Step = 92.6825%
Source Step = 92.885%
Source Step = 93.0875%
Source Step = 93.29%
Source Step = 93.4924%
vernier = 0.0100226
Source Step = 93.7759%
Source Step = 94.0796%
Source Step = 94.3833%
Source Step = 94.6871%
Source Step = 94.9908%
vernier = 0.0150339
Source Step = 95.4008%
Source Step = 95.8564%
Source Step = 96.3119%
Source Step = 96.7675%
Source Step = 97.2231%
vernier = 0.0225508
Source Step = 97.8153%
Source Step = 98.4987%
Source Step = 99.182%
Source Step = 99.8654%
Source stepping succeeded in finding the operating point.


Date: Mon Feb 06 19:19:42 2017
Total elapsed time: 5.540 seconds.

tnom = 27
temp = 27
method = modified trap
totiter = 14470
traniter = 2205
tranpoints = 1043
accept = 1042
rejected = 1
matrix size = 87
fillins = 383
solver = Normal
Thread vector: 78.1/55.2[4] 28.9/12.2[4] 9.2/4.5[4] 1.7/3.0[1]  2592/500
Matrix Compiler1: 38.96 KB object code size  23.5/12.9/[5.6]
Matrix Compiler2: 14.99 KB object code size  3.6/3.7/[1.2]


